<?xml version="1.0" encoding="UTF-8"?>

<!--
# Copyright (c) 2021 Martin Strunz <strunz@campus.tu-berlin.de>
# Copyright (c) 2021 Julian Heinovski <heinovski@ccs-labs.org>
#
# This program is free software: you can redistribute it and/or modify
# it under the terms of the GNU General Public License as published by
# the Free Software Foundation, either version 3 of the License, or
# any later version.
#
# This program is distributed in the hope that it will be useful,
# but WITHOUT ANY WARRANTY; without even the implied warranty of
# MERCHANTABILITY or FITNESS FOR A PARTICULAR PURPOSE.  See the
# GNU General Public License for more details.
#
# You should have received a copy of the GNU General Public License
# along with this program.  If not, see <https://www.gnu.org/licenses/>.
-->

<!-- generated on Mi 02 Sep 2020 12:02:59 CEST by Eclipse SUMO netedit Version 1.6.0
<configuration xmlns:xsi="http://www.w3.org/2001/XMLSchema-instance" xsi:noNamespaceSchemaLocation="http://sumo.dlr.de/xsd/netconvertConfiguration.xsd">

    <output>
        <output-file value="/home/alessandra/code/cfg/freeway2.net.xml"/>
    </output>

    <processing>
        <offset.disable-normalization value="true"/>
    </processing>

    <junctions>
        <no-turnarounds value="true"/>
    </junctions>

    <report>
        <aggregate-warnings value="5"/>
    </report>

</configuration>
-->

<net version="1.6" junctionCornerDetail="5" limitTurnSpeed="5.50" xmlns:xsi="http://www.w3.org/2001/XMLSchema-instance" xsi:noNamespaceSchemaLocation="http://sumo.dlr.de/xsd/net_file.xsd">

    <location netOffset="0.00,0.00" convBoundary="-25000.00,50.00,26000.00,50.00" origBoundary="10000000000.00,10000000000.00,-10000000000.00,-10000000000.00" projParameter="!"/>

    <edge id=":n2_0" function="internal">
        <lane id=":n2_0_0" index="0" speed="37.3" length="0.10" shape="25000.00,42.00 25000.00,42.00"/>
        <lane id=":n2_0_1" index="1" speed="37.3" length="0.10" shape="25000.00,45.20 25000.00,45.20"/>
        <lane id=":n2_0_2" index="2" speed="37.3" length="0.10" shape="25000.00,48.40 25000.00,48.40"/>
    </edge>

    <edge id="exit" from="n2" to="n3" priority="-1">
        <lane id="exit_0" index="0" speed="37.3" length="1000.00" shape="25000.00,42.00 26000.00,42.00"/>
        <lane id="exit_1" index="1" speed="37.3" length="1000.00" shape="25000.00,45.20 26000.00,45.20"/>
        <lane id="exit_2" index="2" speed="37.3" length="1000.00" shape="25000.00,48.40 26000.00,48.40"/>
    </edge>
    <edge id="freeway" from="n1" to="n2" priority="-1">
        <lane id="freeway_0" index="0" speed="37.3" length="50000.00" shape="-25000.00,42.00 25000.00,42.00"/>
        <lane id="freeway_1" index="1" speed="37.3" length="50000.00" shape="-25000.00,45.20 25000.00,45.20"/>
        <lane id="freeway_2" index="2" speed="37.3" length="50000.00" shape="-25000.00,48.40 25000.00,48.40"/>
    </edge>

    <junction id="n1" type="dead_end" x="-25000.00" y="50.00" incLanes="" intLanes="" shape="-25000.00,50.00 -25000.00,40.40"/>
    <junction id="n2" type="priority" x="25000.00" y="50.00" incLanes="freeway_0 freeway_1 freeway_2" intLanes=":n2_0_0 :n2_0_1 :n2_0_2" shape="25000.00,50.00 25000.00,40.40 25000.00,50.00">
        <request index="0" response="000" foes="000" cont="0"/>
        <request index="1" response="000" foes="000" cont="0"/>
        <request index="2" response="000" foes="000" cont="0"/>
    </junction>
    <junction id="n3" type="dead_end" x="26000.00" y="50.00" incLanes="exit_0 exit_1 exit_2" intLanes="" shape="26000.00,40.40 26000.00,50.00"/>

    <connection from="freeway" to="exit" fromLane="0" toLane="0" via=":n2_0_0" dir="s" state="M"/>
    <connection from="freeway" to="exit" fromLane="1" toLane="1" via=":n2_0_1" dir="s" state="M"/>
    <connection from="freeway" to="exit" fromLane="2" toLane="2" via=":n2_0_2" dir="s" state="M"/>

    <connection from=":n2_0" to="exit" fromLane="0" toLane="0" dir="s" state="M"/>
    <connection from=":n2_0" to="exit" fromLane="1" toLane="1" dir="s" state="M"/>
    <connection from=":n2_0" to="exit" fromLane="2" toLane="2" dir="s" state="M"/>

</net>
